/*---------------------------------------------------------------------------*\
| =========                 |                                                 |
| \\      /  F ield         | OpenFOAM: The Open Source CFD Toolbox           |
|  \\    /   O peration     | Version:  2512                                  |
|   \\  /    A nd           | Website:  www.openfoam.com                      |
|    \\/     M anipulation  |                                                 |
\*---------------------------------------------------------------------------*/
Build  : _87ed40d256-20251219 OPENFOAM=2512 version=v2512
Arch   : "LSB;label=32;scalar=64"
Exec   : icoFoam
Date   : May 09 2026
Time   : 00:05:43
Host   : Tavea-Station
PID    : 617667
I/O    : uncollated
Case   : /home/heiko/CFD-Cases/Testcase-petsc4Foam-ESI/cavity-petsc-sanity
nProcs : 1
trapFpe: Floating point exception trapping enabled (FOAM_SIGFPE).
memory pool : not available
fileModificationChecking : Monitoring run-time modified files using timeStampMaster (fileModificationSkew 5, maxFileModificationPolls 20)
allowSystemOperations : Allowing user-supplied system call operations

// * * * * * * * * * * * * * * * * * * * * * * * * * * * * * * * * * * * * * //
Create time

Create mesh for time = 0


PISO: Operating solver in PISO mode

Reading transportProperties

Reading field p

Reading field U

Reading/calculating face flux field phi


Starting time loop

Time = 0.005

Courant Number mean: 0 max: 0
smoothSolver:  Solving for Ux, Initial residual = 1, Final residual = 8.90511e-06, No Iterations 19
smoothSolver:  Solving for Uy, Initial residual = 0, Final residual = 0, No Iterations 0
ExecutionTime = 0.15 s  ClockTime = 0 s

Initializing PETSc... success
ExecutionTime = 0.37 s  ClockTime = 0 s

PETSc-cg:  Solving for p, Initial residual = 1, Final residual = 6.16804e-07, No Iterations 10
time step continuity errors : sum local = 4.10734e-09, global = 4.03664e-19, cumulative = 4.03664e-19
PETSc-cg:  Solving for p, Initial residual = 0.523588, Final residual = 2.83587e-07, No Iterations 10
time step continuity errors : sum local = 3.13209e-09, global = 2.33017e-19, cumulative = 6.36681e-19
ExecutionTime = 0.51 s  ClockTime = 1 s

End

Finalizing PETSc
****************************************************************************************************************************************************************
***                                WIDEN YOUR WINDOW TO 160 CHARACTERS.  Use 'enscript -r -fCourier9' to print this document                                 ***
****************************************************************************************************************************************************************

------------------------------------------------------------------ PETSc Performance Summary: ------------------------------------------------------------------

Unknown Name on a arch-bmg-opt named Tavea-Station with 1 process, by heiko on Sat May  9 00:05:44 2026
Using PETSc Release Version 3.25.1, May 01, 2026

                         Max       Max/Min     Avg       Total
Time (sec):           4.107e-01     1.000   4.107e-01
Objects:              0.000e+00     0.000   0.000e+00
Flops:                2.094e+05     1.000   2.094e+05  2.094e+05
Flops/sec:            5.098e+05     1.000   5.098e+05  5.098e+05
MPI Msg Count:        0.000e+00     0.000   0.000e+00  0.000e+00
MPI Msg Len (bytes):  0.000e+00     0.000   0.000e+00  0.000e+00
MPI Reductions:       0.000e+00     0.000

Flop counting convention: 1 flop = 1 real number operation of type (multiply/divide/add/subtract)
                            e.g., VecAXPY() for real vectors of length N --> 2N flops
                            and VecAXPY() for complex vectors of length N --> 8N flops

Summary of Stages:   ----- Time ------  ----- Flop ------  --- Messages ---  -- Message Lengths --  -- Reductions --
                        Avg     %Total     Avg     %Total    Count   %Total     Avg         %Total    Count   %Total
 0:      Main Stage: 1.2346e-01  30.1%  1.5360e+04   7.3%  0.000e+00   0.0%  0.000e+00        0.0%  0.000e+00   0.0%
 1:      foam_p_mat: 1.0458e-02   2.5%  0.0000e+00   0.0%  0.000e+00   0.0%  0.000e+00        0.0%  0.000e+00   0.0%
 2:       foam_p_pc: 2.6249e-01  63.9%  0.0000e+00   0.0%  0.000e+00   0.0%  0.000e+00        0.0%  0.000e+00   0.0%
 3:      foam_p_ksp: 1.4311e-02   3.5%  1.9404e+05  92.7%  0.000e+00   0.0%  0.000e+00        0.0%  0.000e+00   0.0%

------------------------------------------------------------------------------------------------------------------------
See the 'Profiling' chapter of the users' manual for details on interpreting output.
Phase summary info:
   Count: number of times phase was executed
   Time and Flop: Max - maximum over all processes
                  Ratio - ratio of maximum to minimum over all processes
   Mess: number of messages sent
   AvgLen: average message length (bytes)
   Reduct: number of global reductions
   Global: entire computation
   Stage: stages of a computation. Set stages with PetscLogStagePush() and PetscLogStagePop().
      %T - percent time in this phase         %F - percent flop in this phase
      %M - percent messages in this phase     %L - percent message lengths in this phase
      %R - percent reductions in this phase
   Total Mflop/s: 1e-6 * (sum of flop over all processes)/(max time over all processes)
   GPU Mflop/s: 1e-6 * (sum of flop on GPU over all processes)/(max GPU time over all processes)
   CpuToGpu Count: total number of CPU to GPU copies per processor
   CpuToGpu Size (Mbytes): 1e-6 * (total size of CPU to GPU copies per processor)
   GpuToCpu Count: total number of GPU to CPU copies per processor
   GpuToCpu Size (Mbytes): 1e-6 * (total size of GPU to CPU copies per processor)
   GPU %F: percent flops on GPU in this event
------------------------------------------------------------------------------------------------------------------------
Event                Count      Time (sec)     Flop                              --- Global ---  --- Stage ----  Total   GPU    - CpuToGpu -   - GpuToCpu - GPU
                   Max Ratio  Max     Ratio   Max  Ratio  Mess   AvgLen  Reduct  %T %F %M %L %R  %T %F %M %L %R Mflop/s Mflop/s Count   Size   Count   Size  %F
---------------------------------------------------------------------------------------------------------------------------------------------------------------

--- Event Stage 0: Main Stage

MatMult                4 1.0  n/a     n/a   1.54e+04 1.0 0.0e+00 0.0e+00 0.0e+00  0  7  0  0  0   1 100  0  0  0  n/a    n/a       0 0.00e+00    0 0.00e+00 100
DCtxDestroy            1 1.0  n/a     n/a   0.00e+00 0.0 0.0e+00 0.0e+00 0.0e+00  0  0  0  0  0   0  0  0  0  0  n/a    n/a       0 0.00e+00    0 0.00e+00  0
VecSet                 2 1.0  n/a     n/a   0.00e+00 0.0 0.0e+00 0.0e+00 0.0e+00  2  0  0  0  0   6  0  0  0  0  n/a    n/a       0 0.00e+00    0 0.00e+00  0

--- Event Stage 1: foam_p_mat

MatAssemblyBegin       2 1.0  n/a     n/a   0.00e+00 0.0 0.0e+00 0.0e+00 0.0e+00  0  0  0  0  0   0  0  0  0  0  n/a    n/a       0 0.00e+00    0 0.00e+00  0
MatAssemblyEnd         2 1.0  n/a     n/a   0.00e+00 0.0 0.0e+00 0.0e+00 0.0e+00  0  0  0  0  0   0  0  0  0  0  n/a    n/a       0 0.00e+00    0 0.00e+00  0
MatSetPreallCOO        1 1.0  n/a     n/a   0.00e+00 0.0 0.0e+00 0.0e+00 0.0e+00  0  0  0  0  0   8  0  0  0  0  n/a    n/a       0 0.00e+00    0 0.00e+00  0
MatSetValuesCOO        2 1.0  n/a     n/a   0.00e+00 0.0 0.0e+00 0.0e+00 0.0e+00  1  0  0  0  0  22  0  0  0  0  n/a    n/a       0 0.00e+00    0 0.00e+00  0
DCtxCreate             1 1.0  n/a     n/a   0.00e+00 0.0 0.0e+00 0.0e+00 0.0e+00  0  0  0  0  0   0  0  0  0  0  n/a    n/a       0 0.00e+00    0 0.00e+00  0
DCtxSetUp              1 1.0  n/a     n/a   0.00e+00 0.0 0.0e+00 0.0e+00 0.0e+00  0  0  0  0  0   3  0  0  0  0  n/a    n/a       0 0.00e+00    0 0.00e+00  0
DCtxSetDevice          1 1.0  n/a     n/a   0.00e+00 0.0 0.0e+00 0.0e+00 0.0e+00  0  0  0  0  0   8  0  0  0  0  n/a    n/a       0 0.00e+00    0 0.00e+00  0

--- Event Stage 2: foam_p_pc

MatConvert             2 1.0  n/a     n/a   0.00e+00 0.0 0.0e+00 0.0e+00 0.0e+00  2  0  0  0  0   3  0  0  0  0  n/a    n/a       0 0.00e+00    0 0.00e+00  0
MatAssemblyBegin       3 1.0  n/a     n/a   0.00e+00 0.0 0.0e+00 0.0e+00 0.0e+00  0  0  0  0  0   0  0  0  0  0  n/a    n/a       0 0.00e+00    0 0.00e+00  0
MatAssemblyEnd         3 1.0  n/a     n/a   0.00e+00 0.0 0.0e+00 0.0e+00 0.0e+00  1  0  0  0  0   1  0  0  0  0  n/a    n/a       0 0.00e+00    0 0.00e+00  0
MatGetRowIJ            2 1.0  n/a     n/a   0.00e+00 0.0 0.0e+00 0.0e+00 0.0e+00  0  0  0  0  0   0  0  0  0  0  n/a    n/a       0 0.00e+00    0 0.00e+00  0
MatSetPreallCOO        1 1.0  n/a     n/a   0.00e+00 0.0 0.0e+00 0.0e+00 0.0e+00  0  0  0  0  0   0  0  0  0  0  n/a    n/a       0 0.00e+00    0 0.00e+00  0
MatSetValuesCOO        2 1.0  n/a     n/a   0.00e+00 0.0 0.0e+00 0.0e+00 0.0e+00  0  0  0  0  0   0  0  0  0  0  n/a    n/a       0 0.00e+00    0 0.00e+00  0
KSPSetUp               2 1.0  n/a     n/a   0.00e+00 0.0 0.0e+00 0.0e+00 0.0e+00  0  0  0  0  0   0  0  0  0  0  n/a    n/a       0 0.00e+00    0 0.00e+00  0
PCSetUp                2 1.0  n/a     n/a   0.00e+00 0.0 0.0e+00 0.0e+00 0.0e+00 64  0  0  0  0 100  0  0  0  0  n/a    n/a       0 0.00e+00    0 0.00e+00  0

--- Event Stage 3: foam_p_ksp

MatMult               22 1.0  n/a     n/a   8.45e+04 1.0 0.0e+00 0.0e+00 0.0e+00  0 40  0  0  0   8 44  0  0  0  n/a    n/a       0 0.00e+00    0 0.00e+00 100
KSPSolve               2 1.0 1.4287e-02 1.0 1.94e+05 1.0 0.0e+00 0.0e+00 0.0e+00  3 93  0  0  0 100 100  0  0  0    14    n/a       0 0.00e+00    0 0.00e+00 100
PCApply               22 1.0  n/a     n/a   0.00e+00 0.0 0.0e+00 0.0e+00 0.0e+00  2  0  0  0  0  52  0  0  0  0  n/a    n/a       0 0.00e+00    0 0.00e+00  0
VecTDot               44 1.0  n/a     n/a   3.52e+04 1.0 0.0e+00 0.0e+00 0.0e+00  0 17  0  0  0   5 18  0  0  0  n/a    n/a       0 0.00e+00    0 0.00e+00 100
VecNorm               44 1.0  n/a     n/a   2.64e+04 1.0 0.0e+00 0.0e+00 0.0e+00  0 13  0  0  0  12 14  0  0  0  n/a    n/a       0 0.00e+00    0 0.00e+00 100
VecCopy               24 1.0  n/a     n/a   0.00e+00 0.0 0.0e+00 0.0e+00 0.0e+00  0  0  0  0  0   0  0  0  0  0  n/a    n/a       0 0.00e+00    0 0.00e+00  0
VecSet                22 1.0  n/a     n/a   0.00e+00 0.0 0.0e+00 0.0e+00 0.0e+00  0  0  0  0  0   0  0  0  0  0  n/a    n/a       0 0.00e+00    0 0.00e+00  0
VecAXPY               40 1.0  n/a     n/a   3.20e+04 1.0 0.0e+00 0.0e+00 0.0e+00  0 15  0  0  0   1 16  0  0  0  n/a    n/a       0 0.00e+00    0 0.00e+00 100
VecAYPX               20 1.0  n/a     n/a   1.60e+04 1.0 0.0e+00 0.0e+00 0.0e+00  1  8  0  0  0  21  8  0  0  0  n/a    n/a       0 0.00e+00    0 0.00e+00 100
---------------------------------------------------------------------------------------------------------------------------------------------------------------

Object Type          Creations   Destructions. Reports information only for process 0.

--- Event Stage 0: Main Stage

           Container     1              7
              Matrix     0              3
       Krylov Solver     0              1
      Preconditioner     0              1
              Vector     5             10

--- Event Stage 1: foam_p_mat

           Container     4              0
              Matrix     1              0
  PetscDeviceContext     1              0
       Krylov Solver     1              0
      Preconditioner     1              0
              Vector     2              0

--- Event Stage 2: foam_p_pc

           Container     2              0
              Matrix     2              0
              Vector     4              1

--- Event Stage 3: foam_p_ksp

========================================================================================================================
Average time to get PetscTime(): 1.41e-08
#PETSc Option Table entries:
-eqn_p_ksp_atol 1e-8 # (source: code)
-eqn_p_ksp_max_it 500 # (source: code)
-eqn_p_ksp_rtol 1e-6 # (source: code)
-eqn_p_ksp_type cg # (source: code)
-eqn_p_mat_type aijkokkos # (source: code)
-eqn_p_pc_hypre_boomeramg_relax_type_all l1scaled-jacobi # (source: code)
-eqn_p_pc_hypre_boomeramg_strong_threshold 0.5 # (source: code)
-eqn_p_pc_hypre_type boomeramg # (source: code)
-eqn_p_pc_type hypre # (source: code)
-eqn_p_vec_type kokkos # (source: code)
-log_view # (source: environment)
-use_gpu_aware_mpi 0 # (source: environment)
#End of PETSc Option Table entries
Compiled without FORTRAN kernels
Compiled with full precision matrices (default)
sizeof(short) 2 sizeof(int) 4 sizeof(long) 8 sizeof(void*) 8 sizeof(PetscScalar) 8 sizeof(PetscInt) 4
Configure options: PETSC_ARCH=arch-bmg-opt --with-cc=/usr/bin/mpicc --with-cxx=/usr/bin/mpicxx --with-fc=0 --with-debugging=0 --COPTFLAGS="-O3 -march=native" --CXXOPTFLAGS="-O3 -march=native" --SYCLFLAGS=-fsycl --with-sycl --with-syclc=icpx --with-precision=double --with-blaslapack-dir=/opt/intel/oneapi/2025.3/mkl/2025.3 --with-shared-libraries=1 --download-kokkos --download-kokkos-kernels=file:///opt/openfoam-v2512/tarballs/kokkos-kernels-5.1.0-plan-i.tar.gz --download-hypre --download-hypre-commit=origin/master --download-hypre-configure-arguments=--enable-unified-memory --download-umpire --download-caliper
-----------------------------------------
Libraries compiled on 2026-05-08 20:57:19 on Tavea-Station
Machine characteristics: Linux-7.0.0-15-generic-x86_64-with-glibc2.43
Using PETSc directory: /opt/openfoam-v2512/petsc-3.25.1
Using PETSc arch: arch-bmg-opt
-----------------------------------------

Using C compiler: /usr/bin/mpicc  -fPIC -Wall -Wwrite-strings -Wno-unknown-pragmas -Wconversion -Wno-sign-conversion -Wno-float-conversion -Wno-implicit-float-conversion -Qunused-arguments -fstack-protector -fvisibility=hidden -O3 -march=native 
-----------------------------------------

Using include paths: -I/opt/openfoam-v2512/petsc-3.25.1/include -I/opt/openfoam-v2512/petsc-3.25.1/arch-bmg-opt/include -I/opt/intel/oneapi/2025.3/compiler/2025.3/include/sycl
-----------------------------------------

Using C linker: /usr/bin/mpicc
Using libraries: -Wl,-rpath,/opt/openfoam-v2512/petsc-3.25.1/arch-bmg-opt/lib -L/opt/openfoam-v2512/petsc-3.25.1/arch-bmg-opt/lib -lpetsc -Wl,-rpath,/opt/openfoam-v2512/petsc-3.25.1/arch-bmg-opt/lib -L/opt/openfoam-v2512/petsc-3.25.1/arch-bmg-opt/lib -Wl,-rpath,/opt/intel/oneapi/2025.3/mkl/2025.3/lib/intel64 -L/opt/intel/oneapi/2025.3/mkl/2025.3/lib/intel64 -Wl,-rpath,/opt/intel/oneapi/2025.3/compiler/2025.3/lib -L/opt/intel/oneapi/2025.3/compiler/2025.3/lib -lHYPRE -lkokkoskernels -lmkl_intel_lp64 -lmkl_core -lmkl_sequential -lpthread -lumpire -lcamp -lkokkoscontainers -lkokkoscore -lkokkossimd -lcaliper -lX11 -lsycl -lstdc++
-----------------------------------------

WARNING! There are options you set that were not used!
WARNING! could be spelling mistake, etc!
There is one unused database option. It is:
Option left: name:-eqn_p_vec_type value: kokkos source: code
